idx :: 34, smiles :: OCc1ccc(Cl)cn1, cost :: 0.5450769249748109
     RDKit          3D

  9  9  0  0  0  0  0  0  0  0999 V2000
   25.6170   34.1570   35.5320 O   0  0  0  0  0  0  0  0  0  0  0  0
   24.5810   35.1380   35.5030 C   0  0  0  0  0  0  0  0  0  0  0  0
   24.6570   35.9760   34.2450 C   0  0  0  0  0  0  0  0  0  0  0  0
   25.7080   36.8720   34.0590 C   0  0  0  0  0  0  0  0  0  0  0  0
   25.7490   37.6290   32.8880 C   0  0  0  0  0  0  0  0  0  0  0  0
   24.7450   37.4690   31.9410 C   0  0  0  0  0  0  0  0  0  0  0  0
   24.7610   38.3820   30.4880 Cl  0  0  0  0  0  0  0  0  0  0  0  0
   23.7340   36.5570   32.2000 C   0  0  0  0  0  0  0  0  0  0  0  0
   23.6640   35.8070   33.3270 N   0  0  0  0  0  0  0  0  0  0  0  0
  1  2  1  0
  2  3  1  0
  3  4  2  0
  4  5  1  0
  5  6  2  0
  6  7  1  0
  6  8  1  0
  8  9  2  0
  9  3  1  0
M  END
