idx :: 7, smiles :: CNc1ccc(CCO)cc1CO, cost :: 1.0
     RDKit          3D

 13 13  0  0  0  0  0  0  0  0999 V2000
   21.5040   34.8240   34.5640 C   0  0  0  0  0  0  0  0  0  0  0  0
   22.9530   34.8260   34.6540 N   0  0  0  0  0  0  0  0  0  0  0  0
   23.6990   35.7560   33.9150 C   0  0  0  0  0  0  0  0  0  0  0  0
   23.2650   36.2630   32.6840 C   0  0  0  0  0  0  0  0  0  0  0  0
   24.0500   37.1470   31.9330 C   0  0  0  0  0  0  0  0  0  0  0  0
   25.3210   37.5220   32.3680 C   0  0  0  0  0  0  0  0  0  0  0  0
   26.1910   38.4970   31.6040 C   0  0  0  0  0  0  0  0  0  0  0  0
   26.0720   38.4490   30.0770 C   0  0  0  0  0  0  0  0  0  0  0  0
   26.6540   37.2650   29.5370 O   0  0  0  0  0  0  0  0  0  0  0  0
   25.7780   37.0020   33.5870 C   0  0  0  0  0  0  0  0  0  0  0  0
   24.9960   36.1110   34.3500 C   0  0  0  0  0  0  0  0  0  0  0  0
   25.5710   35.5590   35.6330 C   0  0  0  0  0  0  0  0  0  0  0  0
   25.7170   34.1430   35.5500 O   0  0  0  0  0  0  0  0  0  0  0  0
  1  2  1  0
  2  3  1  0
  3  4  2  0
  4  5  1  0
  5  6  2  0
  6  7  1  0
  7  8  1  0
  8  9  1  0
  6 10  1  0
 10 11  2  0
 11 12  1  0
 12 13  1  0
 11  3  1  0
M  END
