/home/l/Downloads/ligand_4hw3.pdb
 OpenBabel05092414113D

 44 46  0  0  0  0  0  0  0  0999 V2000
   70.0920  -30.9610   23.4970 O   0  0  0  0  0  0  0  0  0  0  0  0
   70.8790  -31.4330   24.3470 C   0  0  0  0  0  0  0  0  0  0  0  0
   72.0930  -31.1000   24.3600 O   0  0  0  0  0  0  0  0  0  0  0  0
   70.4240  -32.4200   25.3470 C   0  0  0  0  0  0  0  0  0  0  0  0
   71.4380  -33.1040   26.4870 S   0  0  0  0  0  0  0  0  0  0  0  0
   70.3290  -34.1390   27.2640 C   0  0  0  0  0  0  0  0  0  0  0  0
   70.4140  -35.0340   28.3240 C   0  0  0  0  0  0  0  0  0  0  0  0
   69.2840  -35.7240   28.7290 C   0  0  0  0  0  0  0  0  0  0  0  0
   68.0450  -35.5110   28.1150 C   0  0  0  0  0  0  0  0  0  0  0  0
   67.9450  -34.6060   27.0620 C   0  0  0  0  0  0  0  0  0  0  0  0
   69.0900  -33.9290   26.6290 C   0  0  0  0  0  0  0  0  0  0  0  0
   69.1440  -32.9730   25.5730 C   0  0  0  0  0  0  0  0  0  0  0  0
   67.9340  -32.5780   24.7860 C   0  0  0  0  0  0  0  0  0  0  0  0
   67.3320  -31.2610   25.1790 C   0  0  0  0  0  0  0  0  0  0  0  0
   66.4320  -31.2290   26.3720 C   0  0  0  0  0  0  0  0  0  0  0  0
   65.5300  -32.2760   26.4560 O   0  0  0  0  0  0  0  0  0  0  0  0
   64.6050  -32.3310   27.4600 C   0  0  0  0  0  0  0  0  0  0  0  0
   63.3620  -32.8710   27.1790 C   0  0  0  0  0  0  0  0  0  0  0  0
   62.4220  -32.9640   28.1910 C   0  0  0  0  0  0  0  0  0  0  0  0
   61.0650  -33.5640   27.9340 C   0  0  0  0  0  0  0  0  0  0  0  0
   62.7330  -32.4970   29.4630 C   0  0  0  0  0  0  0  0  0  0  0  0
   61.5390  -32.6300   30.6950 Cl  0  0  0  0  0  0  0  0  0  0  0  0
   63.9770  -31.9540   29.7440 C   0  0  0  0  0  0  0  0  0  0  0  0
   64.2840  -31.4470   31.1220 C   0  0  0  0  0  0  0  0  0  0  0  0
   64.9190  -31.8570   28.7290 C   0  0  0  0  0  0  0  0  0  0  0  0
   69.1909  -31.2179   23.4992 H   0  0  0  0  0  0  0  0  0  0  0  0
   71.3140  -35.1834   28.8063 H   0  0  0  0  0  0  0  0  0  0  0  0
   69.3570  -36.4082   29.4981 H   0  0  0  0  0  0  0  0  0  0  0  0
   67.2098  -36.0220   28.4410 H   0  0  0  0  0  0  0  0  0  0  0  0
   67.0352  -34.4362   26.6054 H   0  0  0  0  0  0  0  0  0  0  0  0
   68.2112  -32.5229   23.7540 H   0  0  0  0  0  0  0  0  0  0  0  0
   67.1898  -33.3210   24.9833 H   0  0  0  0  0  0  0  0  0  0  0  0
   68.1401  -30.5867   25.3719 H   0  0  0  0  0  0  0  0  0  0  0  0
   66.6967  -31.0019   24.3579 H   0  0  0  0  0  0  0  0  0  0  0  0
   65.8768  -30.3147   26.3438 H   0  0  0  0  0  0  0  0  0  0  0  0
   67.0686  -31.3151   27.2277 H   0  0  0  0  0  0  0  0  0  0  0  0
   63.1387  -33.2003   26.2268 H   0  0  0  0  0  0  0  0  0  0  0  0
   60.9976  -33.8683   26.9104 H   0  0  0  0  0  0  0  0  0  0  0  0
   60.3083  -32.8361   28.1402 H   0  0  0  0  0  0  0  0  0  0  0  0
   60.9248  -34.4139   28.5688 H   0  0  0  0  0  0  0  0  0  0  0  0
   65.2841  -31.0675   31.1478 H   0  0  0  0  0  0  0  0  0  0  0  0
   64.1878  -32.2470   31.8260 H   0  0  0  0  0  0  0  0  0  0  0  0
   63.5991  -30.6649   31.3751 H   0  0  0  0  0  0  0  0  0  0  0  0
   65.8433  -31.4372   28.9144 H   0  0  0  0  0  0  0  0  0  0  0  0
  1  2  1  0  0  0  0
  1 26  1  0  0  0  0
  2  3  2  0  0  0  0
  2  4  1  0  0  0  0
  4  5  1  0  0  0  0
  4 12  2  0  0  0  0
  5  6  1  0  0  0  0
  6  7  2  0  0  0  0
  6 11  1  0  0  0  0
  7  8  1  0  0  0  0
  7 27  1  0  0  0  0
  8  9  2  0  0  0  0
  8 28  1  0  0  0  0
  9 10  1  0  0  0  0
  9 29  1  0  0  0  0
 10 11  2  0  0  0  0
 10 30  1  0  0  0  0
 11 12  1  0  0  0  0
 12 13  1  0  0  0  0
 13 14  1  0  0  0  0
 13 31  1  0  0  0  0
 13 32  1  0  0  0  0
 14 15  1  0  0  0  0
 14 33  1  0  0  0  0
 14 34  1  0  0  0  0
 15 16  1  0  0  0  0
 15 35  1  0  0  0  0
 15 36  1  0  0  0  0
 16 17  1  0  0  0  0
 17 18  2  0  0  0  0
 17 25  1  0  0  0  0
 18 19  1  0  0  0  0
 18 37  1  0  0  0  0
 19 20  1  0  0  0  0
 19 21  2  0  0  0  0
 20 38  1  0  0  0  0
 20 39  1  0  0  0  0
 20 40  1  0  0  0  0
 21 22  1  0  0  0  0
 21 23  1  0  0  0  0
 23 24  1  0  0  0  0
 23 25  2  0  0  0  0
 24 41  1  0  0  0  0
 24 42  1  0  0  0  0
 24 43  1  0  0  0  0
 25 44  1  0  0  0  0
M  END
