idx :: 24, smiles :: N#Cc1cc2c(OCc3nc4ccc(C(N)=O)cc4o3)cccc2[nH]1, cost :: 0.40072431196563096
     RDKit          3D

 25 28  0  0  0  0  0  0  0  0999 V2000
   68.2260   34.0170   43.7660 N   0  0  0  0  0  0  0  0  0  0  0  0
   67.6570   34.1820   44.7630 C   0  0  0  0  0  0  0  0  0  0  0  0
   66.9260   34.3870   45.9640 C   0  0  0  0  0  0  0  0  0  0  0  0
   65.5890   34.1510   46.2040 C   0  0  0  0  0  0  0  0  0  0  0  0
   65.3210   34.5110   47.5550 C   0  0  0  0  0  0  0  0  0  0  0  0
   64.1740   34.4950   48.3750 C   0  0  0  0  0  0  0  0  0  0  0  0
   62.9580   34.0760   47.8900 O   0  0  0  0  0  0  0  0  0  0  0  0
   61.9890   35.1270   47.9980 C   0  0  0  0  0  0  0  0  0  0  0  0
   61.4070   35.3300   46.6430 C   0  0  0  0  0  0  0  0  0  0  0  0
   61.1200   36.4650   46.0280 N   0  0  0  0  0  0  0  0  0  0  0  0
   60.6370   36.0620   44.8110 C   0  0  0  0  0  0  0  0  0  0  0  0
   60.1830   36.7990   43.7110 C   0  0  0  0  0  0  0  0  0  0  0  0
   59.7460   36.0900   42.5790 C   0  0  0  0  0  0  0  0  0  0  0  0
   59.7480   34.6830   42.5460 C   0  0  0  0  0  0  0  0  0  0  0  0
   59.2780   34.0200   41.2980 C   0  0  0  0  0  0  0  0  0  0  0  0
   57.9670   34.1760   40.9470 N   0  0  0  0  0  0  0  0  0  0  0  0
   60.0410   33.3760   40.5890 O   0  0  0  0  0  0  0  0  0  0  0  0
   60.2050   33.9350   43.6440 C   0  0  0  0  0  0  0  0  0  0  0  0
   60.6320   34.6790   44.7400 C   0  0  0  0  0  0  0  0  0  0  0  0
   61.1220   34.1980   45.9190 O   0  0  0  0  0  0  0  0  0  0  0  0
   64.2480   34.9670   49.6900 C   0  0  0  0  0  0  0  0  0  0  0  0
   65.4610   35.4150   50.2080 C   0  0  0  0  0  0  0  0  0  0  0  0
   66.6230   35.4190   49.4270 C   0  0  0  0  0  0  0  0  0  0  0  0
   66.5210   34.9680   48.1040 C   0  0  0  0  0  0  0  0  0  0  0  0
   67.4770   34.8790   47.1170 N   0  0  0  0  0  0  0  0  0  0  0  0
  1  2  3  0
  2  3  1  0
  3  4  2  0
  4  5  1  0
  5  6  2  0
  6  7  1  0
  7  8  1  0
  8  9  1  0
  9 10  2  0
 10 11  1  0
 11 12  2  0
 12 13  1  0
 13 14  2  0
 14 15  1  0
 15 16  1  0
 15 17  2  0
 14 18  1  0
 18 19  2  0
 19 20  1  0
  6 21  1  0
 21 22  2  0
 22 23  1  0
 23 24  2  0
 24 25  1  0
 25  3  1  0
 24  5  1  0
 20  9  1  0
 19 11  1  0
M  END
