idx :: 9, smiles :: C=CCCCCCCCCCOc1cccc2[nH]c(C#N)cc12, cost :: 1.0
     RDKit          3D

 23 24  0  0  0  0  0  0  0  0999 V2000
   62.5220   32.7570   43.4980 C   0  0  0  0  0  0  0  0  0  0  0  0
   61.2650   32.4160   43.1870 C   0  0  0  0  0  0  0  0  0  0  0  0
   60.5170   32.7060   41.9130 C   0  0  0  0  0  0  0  0  0  0  0  0
   59.0050   32.9520   41.9980 C   0  0  0  0  0  0  0  0  0  0  0  0
   58.6500   34.2440   42.7410 C   0  0  0  0  0  0  0  0  0  0  0  0
   59.2740   35.4640   42.0560 C   0  0  0  0  0  0  0  0  0  0  0  0
   60.1720   36.2410   43.0200 C   0  0  0  0  0  0  0  0  0  0  0  0
   60.0780   35.7530   44.4680 C   0  0  0  0  0  0  0  0  0  0  0  0
   61.2790   36.0860   45.3600 C   0  0  0  0  0  0  0  0  0  0  0  0
   61.8510   34.9130   46.1650 C   0  0  0  0  0  0  0  0  0  0  0  0
   61.8410   35.1200   47.6780 C   0  0  0  0  0  0  0  0  0  0  0  0
   62.5330   34.0320   48.3020 O   0  0  0  0  0  0  0  0  0  0  0  0
   63.6340   34.5060   48.9820 C   0  0  0  0  0  0  0  0  0  0  0  0
   63.4480   35.0200   50.2690 C   0  0  0  0  0  0  0  0  0  0  0  0
   64.5270   35.5360   50.9820 C   0  0  0  0  0  0  0  0  0  0  0  0
   65.8120   35.5690   50.4270 C   0  0  0  0  0  0  0  0  0  0  0  0
   65.9710   35.0760   49.1250 C   0  0  0  0  0  0  0  0  0  0  0  0
   67.0940   35.0050   48.3320 N   0  0  0  0  0  0  0  0  0  0  0  0
   66.7820   34.4640   47.1120 C   0  0  0  0  0  0  0  0  0  0  0  0
   67.7260   34.2650   46.0690 C   0  0  0  0  0  0  0  0  0  0  0  0
   68.4950   34.0700   45.2240 N   0  0  0  0  0  0  0  0  0  0  0  0
   65.4340   34.1760   47.1130 C   0  0  0  0  0  0  0  0  0  0  0  0
   64.9100   34.5520   48.3830 C   0  0  0  0  0  0  0  0  0  0  0  0
  1  2  2  3
  2  3  1  0
  3  4  1  0
  4  5  1  0
  5  6  1  0
  6  7  1  0
  7  8  1  0
  8  9  1  0
  9 10  1  0
 10 11  1  0
 11 12  1  0
 12 13  1  0
 13 14  2  0
 14 15  1  0
 15 16  2  0
 16 17  1  0
 17 18  1  0
 18 19  1  0
 19 20  1  0
 20 21  3  0
 19 22  2  0
 22 23  1  0
 23 13  1  0
 23 17  2  0
M  END
