idx :: 6, smiles :: N#Cc1cc2c(OCCNC(=O)c3cncc(Br)c3)cccc2[nH]1, cost :: 0.7706442849044732
     RDKit          3D

 24 26  0  0  0  0  0  0  0  0999 V2000
   68.4110   34.1580   45.2730 N   0  0  0  0  0  0  0  0  0  0  0  0
   67.5420   34.2790   46.0320 C   0  0  0  0  0  0  0  0  0  0  0  0
   66.4670   34.4650   46.9420 C   0  0  0  0  0  0  0  0  0  0  0  0
   65.1200   34.2760   46.7260 C   0  0  0  0  0  0  0  0  0  0  0  0
   64.4320   34.5900   47.9380 C   0  0  0  0  0  0  0  0  0  0  0  0
   63.0680   34.5860   48.3140 C   0  0  0  0  0  0  0  0  0  0  0  0
   62.1670   34.1940   47.3620 O   0  0  0  0  0  0  0  0  0  0  0  0
   61.4600   35.2010   46.6340 C   0  0  0  0  0  0  0  0  0  0  0  0
   61.4630   34.8720   45.1380 C   0  0  0  0  0  0  0  0  0  0  0  0
   60.3130   34.0920   44.7020 N   0  0  0  0  0  0  0  0  0  0  0  0
   59.4490   34.5850   43.7450 C   0  0  0  0  0  0  0  0  0  0  0  0
   59.5320   35.7140   43.2770 O   0  0  0  0  0  0  0  0  0  0  0  0
   58.4000   33.6640   43.2530 C   0  0  0  0  0  0  0  0  0  0  0  0
   58.6720   32.6400   42.3530 C   0  0  0  0  0  0  0  0  0  0  0  0
   57.7370   31.7800   41.8810 N   0  0  0  0  0  0  0  0  0  0  0  0
   56.4750   31.9400   42.3510 C   0  0  0  0  0  0  0  0  0  0  0  0
   56.1140   32.9190   43.2660 C   0  0  0  0  0  0  0  0  0  0  0  0
   54.3340   33.0630   43.8710 Br  0  0  0  0  0  0  0  0  0  0  0  0
   57.0920   33.7930   43.7280 C   0  0  0  0  0  0  0  0  0  0  0  0
   62.7510   34.9520   49.6300 C   0  0  0  0  0  0  0  0  0  0  0  0
   63.7440   35.3260   50.5390 C   0  0  0  0  0  0  0  0  0  0  0  0
   65.0910   35.3430   50.1750 C   0  0  0  0  0  0  0  0  0  0  0  0
   65.4040   34.9660   48.8670 C   0  0  0  0  0  0  0  0  0  0  0  0
   66.6260   34.8810   48.2370 N   0  0  0  0  0  0  0  0  0  0  0  0
  1  2  3  0
  2  3  1  0
  3  4  2  0
  4  5  1  0
  5  6  2  0
  6  7  1  0
  7  8  1  0
  8  9  1  0
  9 10  1  0
 10 11  1  0
 11 12  2  0
 11 13  1  0
 13 14  2  0
 14 15  1  0
 15 16  2  0
 16 17  1  0
 17 18  1  0
 17 19  2  0
  6 20  1  0
 20 21  2  0
 21 22  1  0
 22 23  2  0
 23 24  1  0
 24  3  1  0
 23  5  1  0
 19 13  1  0
M  END
