idx :: 2, smiles :: CCCOCCCCOc1cccc2[nH]c(C#N)cc12, cost :: 1.0
     RDKit          3D

 20 21  0  0  0  0  0  0  0  0999 V2000
   59.6030   36.9210   44.3310 C   0  0  0  0  0  0  0  0  0  0  0  0
   59.8040   36.1530   43.0320 C   0  0  0  0  0  0  0  0  0  0  0  0
   59.7620   34.6430   43.2400 C   0  0  0  0  0  0  0  0  0  0  0  0
   60.1640   34.3440   44.5760 O   0  0  0  0  0  0  0  0  0  0  0  0
   61.4450   33.7210   44.6540 C   0  0  0  0  0  0  0  0  0  0  0  0
   62.2750   34.2530   45.8200 C   0  0  0  0  0  0  0  0  0  0  0  0
   61.4500   34.9020   46.9400 C   0  0  0  0  0  0  0  0  0  0  0  0
   62.1410   34.9130   48.3040 C   0  0  0  0  0  0  0  0  0  0  0  0
   63.3150   34.1030   48.3060 O   0  0  0  0  0  0  0  0  0  0  0  0
   64.4890   34.6170   48.7810 C   0  0  0  0  0  0  0  0  0  0  0  0
   64.7050   35.1010   50.0800 C   0  0  0  0  0  0  0  0  0  0  0  0
   65.9490   35.6050   50.4700 C   0  0  0  0  0  0  0  0  0  0  0  0
   67.0260   35.6450   49.5850 C   0  0  0  0  0  0  0  0  0  0  0  0
   66.8080   35.1580   48.2940 C   0  0  0  0  0  0  0  0  0  0  0  0
   67.6700   35.0700   47.2220 N   0  0  0  0  0  0  0  0  0  0  0  0
   67.0330   34.5220   46.1410 C   0  0  0  0  0  0  0  0  0  0  0  0
   67.6550   34.2990   44.8840 C   0  0  0  0  0  0  0  0  0  0  0  0
   68.1400   34.1380   43.8420 N   0  0  0  0  0  0  0  0  0  0  0  0
   65.7350   34.2530   46.5140 C   0  0  0  0  0  0  0  0  0  0  0  0
   65.5760   34.6500   47.8760 C   0  0  0  0  0  0  0  0  0  0  0  0
  1  2  1  0
  2  3  1  0
  3  4  1  0
  4  5  1  0
  5  6  1  0
  6  7  1  0
  7  8  1  0
  8  9  1  0
  9 10  1  0
 10 11  2  0
 11 12  1  0
 12 13  2  0
 13 14  1  0
 14 15  1  0
 15 16  1  0
 16 17  1  0
 17 18  3  0
 16 19  2  0
 19 20  1  0
 20 10  1  0
 20 14  2  0
M  END
