2vt4
  PyMOL2.5          3D                             0

 21 22  0  0  0  0  0  0  0  0999 V2000
   67.0744   34.3000   46.4960 C   0  0  0  0  0  0  0  0  0  0  0  0
   67.7262   34.9225   47.4765 N   0  0  0  0  0  0  0  0  0  0  0  0
   63.3840   34.0303   48.4824 O   0  0  0  0  0  0  0  0  0  0  0  0
   65.7961   34.0658   46.8337 C   0  0  0  0  0  0  0  0  0  0  0  0
   59.8317   34.2067   46.0213 N   0  0  0  0  0  0  0  0  0  0  0  0
   59.8389   33.9161   48.8043 O   0  0  0  0  0  0  0  0  0  0  0  0
   65.6423   34.5665   48.0487 C   0  0  0  0  0  0  0  0  0  0  0  0
   68.2479   33.6502   44.2800 N   0  0  0  0  0  0  0  0  0  0  0  0
   64.5366   34.6050   48.8800 C   0  0  0  0  0  0  0  0  0  0  0  0
   64.6107   35.1917   50.1326 C   0  0  0  0  0  0  0  0  0  0  0  0
   65.8163   35.7410   50.5549 C   0  0  0  0  0  0  0  0  0  0  0  0
   66.9414   35.7004   49.7334 C   0  0  0  0  0  0  0  0  0  0  0  0
   66.8558   35.1066   48.4726 C   0  0  0  0  0  0  0  0  0  0  0  0
   62.1401   34.4982   48.9866 C   0  0  0  0  0  0  0  0  0  0  0  0
   61.0661   33.8262   48.1284 C   0  0  0  0  0  0  0  0  0  0  0  0
   61.0195   34.5788   46.7903 C   0  0  0  0  0  0  0  0  0  0  0  0
   59.9535   34.7291   44.6492 C   0  0  0  0  0  0  0  0  0  0  0  0
   60.4359   36.2115   44.6519 C   0  0  0  0  0  0  0  0  0  0  0  0
   58.5515   34.6332   43.9974 C   0  0  0  0  0  0  0  0  0  0  0  0
   60.9892   33.8602   43.8941 C   0  0  0  0  0  0  0  0  0  0  0  0
   67.6856   33.8918   45.2501 C   0  0  0  0  0  0  0  0  0  0  0  0
  1  4  2  0  0  0  0
  1 21  1  0  0  0  0
  1  2  1  0  0  0  0
  3  9  1  0  0  0  0
  5 17  1  0  0  0  0
  6 15  1  0  0  0  0
  4  7  1  0  0  0  0
  8 21  3  0  0  0  0
  7  9  1  0  0  0  0
  9 10  2  0  0  0  0
 10 11  1  0  0  0  0
 11 12  2  0  0  0  0
 12 13  1  0  0  0  0
  2 13  1  0  0  0  0
  7 13  2  0  0  0  0
  3 14  1  0  0  0  0
 14 15  1  0  0  0  0
 15 16  1  0  0  0  0
  5 16  1  0  0  0  0
 17 18  1  0  0  0  0
 17 19  1  0  0  0  0
 17 20  1  0  0  0  0
M  END
